psse/psse-converter/src/test/resources/SwitchedShunt.xiidm
<?xml version="1.0" encoding="UTF-8"?>
<iidm:network xmlns:iidm="http://www.powsybl.org/schema/iidm/1_18" xmlns:slt="http://www.powsybl.org/schema/iidm/ext/slack_terminal/1_5" id="SwitchedShunt" caseDate="2016-01-01T10:00:00.000+02:00" forecastDistance="0" sourceFormat="PSS/E" minimumValidationLevel="STEADY_STATE_HYPOTHESIS">
    <iidm:substation id="S1-2-4-7">
        <iidm:voltageLevel id="VL1-2" nominalV="18.0" topologyKind="BUS_BREAKER">
            <iidm:busBreakerTopology>
                <iidm:bus id="B1" name="1           " v="18.72" angle="-6.5957"/>
                <iidm:bus id="B2" name="2           " v="18.72" angle="-6.5957"/>
            </iidm:busBreakerTopology>
            <iidm:generator id="B1-G1 " energySource="OTHER" minP="0.0" maxP="1560.0" targetP="1404.0" localTargetV="18.72" localTargetQ="434.409" bus="B1" connectableBus="B1">
                <iidm:minMaxReactiveLimits minQ="-9900.0" maxQ="9900.0"/>
                <iidm:voltageRegulation mode="VOLTAGE" regulating="true"/>
            </iidm:generator>
            <iidm:generator id="B2-G1 " energySource="OTHER" minP="0.0" maxP="1560.0" targetP="1404.0" localTargetV="18.72" localTargetQ="434.409" bus="B2" connectableBus="B2">
                <iidm:minMaxReactiveLimits minQ="-9900.0" maxQ="9900.0"/>
                <iidm:voltageRegulation mode="VOLTAGE" regulating="true"/>
            </iidm:generator>
            <iidm:shuntCompensator id="B2-SwSH1" sectionCount="3" bus="B2" localTargetV="17.91" connectableBus="B2">
                <iidm:shuntNonLinearModel>
                    <iidm:section b="-0.06172839506172839" g="0.0"/>
                    <iidm:section b="-0.046296296296296294" g="0.0"/>
                    <iidm:section b="-0.030864197530864196" g="0.0"/>
                    <iidm:section b="-0.015432098765432098" g="0.0"/>
                    <iidm:section b="0.0" g="0.0"/>
                </iidm:shuntNonLinearModel>
                <iidm:voltageRegulation targetDeadband="0.17999999999999972" mode="VOLTAGE" regulating="true"/>
            </iidm:shuntCompensator>
        </iidm:voltageLevel>
        <iidm:voltageLevel id="VL4" nominalV="500.0" topologyKind="BUS_BREAKER">
            <iidm:busBreakerTopology>
                <iidm:bus id="B4" name="4           " v="508.455" angle="-11.4772"/>
            </iidm:busBreakerTopology>
            <iidm:load id="B4-L1 " loadType="UNDEFINED" p0="1400.0" q0="100.0" bus="B4" connectableBus="B4"/>
        </iidm:voltageLevel>
        <iidm:voltageLevel id="VL7" nominalV="16.0" topologyKind="BUS_BREAKER">
            <iidm:busBreakerTopology>
                <iidm:bus id="B7" name="7           " v="16.0" angle="0.0"/>
            </iidm:busBreakerTopology>
            <iidm:load id="B7-L1 " loadType="UNDEFINED" p0="1.0" q0="1.0" bus="B7" connectableBus="B7"/>
        </iidm:voltageLevel>
        <iidm:twoWindingsTransformer id="T-1-4-1 " r="0.0" x="16.025" ratedU1="18.0" ratedU2="500.0" voltageLevelId1="VL1-2" bus1="B1" connectableBus1="B1" voltageLevelId2="VL4" bus2="B4" connectableBus2="B4" selectedOperationalLimitsGroupIds1="DEFAULT" selectedOperationalLimitsGroupIds2="DEFAULT">
            <iidm:operationalLimitsGroup1 id="DEFAULT">
                <iidm:currentLimits detectionKind="HIGH" permanentLimit="325240.65164348925"/>
            </iidm:operationalLimitsGroup1>
            <iidm:operationalLimitsGroup2 id="DEFAULT">
                <iidm:currentLimits detectionKind="HIGH" permanentLimit="11708.663459165611"/>
            </iidm:operationalLimitsGroup2>
        </iidm:twoWindingsTransformer>
        <iidm:threeWindingsTransformer id="T-4-2-7-1 " name="AEPTM1T     " r1="-7.799051701646568E-7" x1="1.1395911508266792E-4" g1="0.144572" b1="-0.1079031826036656" ratedU1="500.0" r2="2.506552897437384E-6" x2="1.913087291200171E-4" ratedU2="18.0" r3="8.39084857664657E-7" x3="5.51790882287039E-4" ratedU3="16.0" ratedU0="1.0" voltageLevelId1="VL4" bus1="B4" connectableBus1="B4" voltageLevelId2="VL1-2" bus2="B2" connectableBus2="B2" voltageLevelId3="VL7" bus3="B7" connectableBus3="B7" selectedOperationalLimitsGroupIds1="DEFAULT" selectedOperationalLimitsGroupIds2="DEFAULT" selectedOperationalLimitsGroupIds3="DEFAULT">
            <iidm:property name="v" value="0.98627"/>
            <iidm:property name="angle" value="-10.1187"/>
            <iidm:ratioTapChanger2 tapPosition="0" loadTapChangingCapabilities="false">
                <iidm:step rho="0.987004441519987"/>
            </iidm:ratioTapChanger2>
            <iidm:ratioTapChanger3 tapPosition="0" loadTapChangingCapabilities="false">
                <iidm:step rho="1.0001250156269534"/>
            </iidm:ratioTapChanger3>
            <iidm:operationalLimitsGroup1 id="DEFAULT">
                <iidm:currentLimits detectionKind="HIGH" permanentLimit="116.62475437630441"/>
            </iidm:operationalLimitsGroup1>
            <iidm:operationalLimitsGroup2 id="DEFAULT">
                <iidm:currentLimits detectionKind="HIGH" permanentLimit="6447.0780059508215"/>
            </iidm:operationalLimitsGroup2>
            <iidm:operationalLimitsGroup3 id="DEFAULT">
                <iidm:currentLimits detectionKind="HIGH" permanentLimit="10861.401939129835"/>
            </iidm:operationalLimitsGroup3>
        </iidm:threeWindingsTransformer>
    </iidm:substation>
    <iidm:substation id="S3-5">
        <iidm:voltageLevel id="VL3" nominalV="18.0" topologyKind="BUS_BREAKER">
            <iidm:busBreakerTopology>
                <iidm:bus id="B3" name="3           " v="18.36" angle="-37.1199"/>
            </iidm:busBreakerTopology>
            <iidm:generator id="B3-G1 " energySource="OTHER" minP="0.0" maxP="890.0" targetP="800.0" localTargetV="18.36" localTargetQ="466.25" bus="B3" connectableBus="B3">
                <iidm:minMaxReactiveLimits minQ="-9900.0" maxQ="9900.0"/>
                <iidm:voltageRegulation mode="VOLTAGE" regulating="true"/>
            </iidm:generator>
            <iidm:shuntCompensator id="B3-SwSH1" sectionCount="3" bus="B3" localTargetV="17.91" connectableBus="B3">
                <iidm:shuntNonLinearModel>
                    <iidm:section b="-0.06172839506172839" g="0.0"/>
                    <iidm:section b="-0.030864197530864196" g="0.0"/>
                    <iidm:section b="-0.015432098765432098" g="0.0"/>
                    <iidm:section b="0.0" g="0.0"/>
                    <iidm:section b="0.046296296296296294" g="0.0"/>
                </iidm:shuntNonLinearModel>
                <iidm:voltageRegulation targetDeadband="0.17999999999999972" mode="VOLTAGE" regulating="true"/>
            </iidm:shuntCompensator>
        </iidm:voltageLevel>
        <iidm:voltageLevel id="VL5" nominalV="500.0" topologyKind="BUS_BREAKER">
            <iidm:busBreakerTopology>
                <iidm:bus id="B5" name="5           " v="486.39" angle="-42.3008"/>
            </iidm:busBreakerTopology>
            <iidm:load id="B5-L1 " loadType="UNDEFINED" p0="2000.0" q0="100.0" bus="B5" connectableBus="B5"/>
            <iidm:load id="B5-L2 " loadType="UNDEFINED" p0="0.0" q0="50.0" connectableBus="B5"/>
        </iidm:voltageLevel>
        <iidm:twoWindingsTransformer id="T-3-5-1 " r="0.0" x="28.0" ratedU1="18.0" ratedU2="500.0" voltageLevelId1="VL3" bus1="B3" connectableBus1="B3" voltageLevelId2="VL5" bus2="B5" connectableBus2="B5" selectedOperationalLimitsGroupIds1="DEFAULT" selectedOperationalLimitsGroupIds2="DEFAULT">
            <iidm:ratioTapChanger tapPosition="11" loadTapChangingCapabilities="true">
                <iidm:step g="-9.750000000000004" b="-9.750000000000004" rho="1.0526315789473684"/>
                <iidm:step g="-8.84297052154196" b="-8.84297052154196" rho="1.0473815461346634"/>
                <iidm:step g="-7.931405895691624" b="-7.931405895691624" rho="1.0421836228287842"/>
                <iidm:step g="-7.015306122448973" b="-7.015306122448973" rho="1.037037037037037"/>
                <iidm:step g="-6.094671201814061" b="-6.094671201814061" rho="1.031941031941032"/>
                <iidm:step g="-5.169501133786847" b="-5.169501133786847" rho="1.0268948655256724"/>
                <iidm:step g="-4.239795918367351" b="-4.239795918367351" rho="1.0218978102189782"/>
                <iidm:step g="-3.3055555555555616" b="-3.3055555555555616" rho="1.0169491525423728"/>
                <iidm:step g="-2.3667800453514687" b="-2.3667800453514687" rho="1.0120481927710843"/>
                <iidm:step g="-1.4234693877550941" b="-1.4234693877550941" rho="1.0071942446043165"/>
                <iidm:step g="-0.4756235827664379" b="-0.4756235827664379" rho="1.0023866348448687"/>
                <iidm:step rho="1.0"/>
                <iidm:step g="0.4767573696145" b="0.4767573696145" rho="0.997624703087886"/>
                <iidm:step g="1.4336734693877418" b="1.4336734693877418" rho="0.9929078014184397"/>
                <iidm:step g="2.3951247165532763" b="2.3951247165532763" rho="0.9882352941176471"/>
                <iidm:step g="3.3611111111111036" b="3.3611111111111036" rho="0.9836065573770493"/>
                <iidm:step g="4.3316326530612015" b="4.3316326530612015" rho="0.9790209790209791"/>
                <iidm:step g="5.306689342403614" b="5.306689342403614" rho="0.9744779582366591"/>
                <iidm:step g="6.286281179138342" b="6.286281179138342" rho="0.9699769053117782"/>
                <iidm:step g="7.270408163265318" b="7.270408163265318" rho="0.9655172413793103"/>
                <iidm:step g="8.259070294784587" b="8.259070294784587" rho="0.9610983981693363"/>
                <iidm:step g="9.252267573696148" b="9.252267573696148" rho="0.9567198177676537"/>
                <iidm:step g="10.250000000000004" b="10.250000000000004" rho="0.9523809523809523"/>
                <iidm:voltageRegulation mode="VOLTAGE" regulating="true" targetValue="18.45" targetDeadband="2.700000000000003">
                    <iidm:terminalRef id="B3-G1 "/>
                </iidm:voltageRegulation>
            </iidm:ratioTapChanger>
            <iidm:operationalLimitsGroup1 id="DEFAULT">
                <iidm:currentLimits detectionKind="HIGH" permanentLimit="320750.1495497921"/>
            </iidm:operationalLimitsGroup1>
            <iidm:operationalLimitsGroup2 id="DEFAULT">
                <iidm:currentLimits detectionKind="HIGH" permanentLimit="11547.005383792517"/>
            </iidm:operationalLimitsGroup2>
        </iidm:twoWindingsTransformer>
    </iidm:substation>
    <iidm:substation id="S6">
        <iidm:voltageLevel id="VL6" nominalV="500.0" topologyKind="BUS_BREAKER">
            <iidm:busBreakerTopology>
                <iidm:bus id="B6" name="6           " v="500.0" angle="-57.1678"/>
            </iidm:busBreakerTopology>
            <iidm:generator id="B6-G1 " energySource="OTHER" minP="0.0" maxP="20000.0" targetP="9792.007" localTargetV="500.0" localTargetQ="2049.823" bus="B6" connectableBus="B6">
                <iidm:minMaxReactiveLimits minQ="-9900.0" maxQ="9900.0"/>
                <iidm:voltageRegulation mode="VOLTAGE" regulating="true"/>
            </iidm:generator>
            <iidm:load id="B6-L1 " loadType="UNDEFINED" p0="10000.0" q0="2000.0" bus="B6" connectableBus="B6"/>
        </iidm:voltageLevel>
    </iidm:substation>
    <iidm:line id="L-4-5-1 " name="4_5_1 " r="0.0" x="90.0" voltageLevelId1="VL4" bus1="B4" connectableBus1="B4" voltageLevelId2="VL5" bus2="B5" connectableBus2="B5" selectedOperationalLimitsGroupIds1="DEFAULT" selectedOperationalLimitsGroupIds2="DEFAULT">
        <iidm:operationalLimitsGroup1 id="DEFAULT">
            <iidm:currentLimits detectionKind="HIGH" permanentLimit="12067.775326601559"/>
        </iidm:operationalLimitsGroup1>
        <iidm:operationalLimitsGroup2 id="DEFAULT">
            <iidm:currentLimits detectionKind="HIGH" permanentLimit="12067.775326601559"/>
        </iidm:operationalLimitsGroup2>
    </iidm:line>
    <iidm:line id="L-5-6-1 " name="5_6_1 " r="0.0" x="300.0" voltageLevelId1="VL5" bus1="B5" connectableBus1="B5" voltageLevelId2="VL6" bus2="B6" connectableBus2="B6" selectedOperationalLimitsGroupIds1="DEFAULT" selectedOperationalLimitsGroupIds2="DEFAULT">
        <iidm:operationalLimitsGroup1 id="DEFAULT">
            <iidm:currentLimits detectionKind="HIGH" permanentLimit="12194.792385823277"/>
        </iidm:operationalLimitsGroup1>
        <iidm:operationalLimitsGroup2 id="DEFAULT">
            <iidm:currentLimits detectionKind="HIGH" permanentLimit="12194.792385823277"/>
        </iidm:operationalLimitsGroup2>
    </iidm:line>
    <iidm:area id="A1" name="1           " areaType="ControlArea" interchangeTarget="0.0">
        <iidm:voltageLevelRef id="VL1-2"/>
        <iidm:voltageLevelRef id="VL3"/>
        <iidm:voltageLevelRef id="VL4"/>
        <iidm:voltageLevelRef id="VL5"/>
        <iidm:voltageLevelRef id="VL6"/>
        <iidm:voltageLevelRef id="VL7"/>
    </iidm:area>
    <iidm:extension id="VL6">
        <slt:slackTerminal id="B6-L1 "/>
    </iidm:extension>
</iidm:network>
